/*--------------------------------*- C++ -*----------------------------------*\
  =========                 |
  \\      /  F ield         | OpenFOAM: The Open Source CFD Toolbox
   \\    /   O peration     | Website:  https://openfoam.org
    \\  /    A nd           | Version:  11
     \\/     M anipulation  |
\*---------------------------------------------------------------------------*/
FoamFile
{
    format      ascii;
    class       dictionary;
    object      blockMeshDict;
}
// * * * * * * * * * * * * * * * * * * * * * * * * * * * * * * * * * * * * * //

//convertToMeters 0.1;

// define vertices coordinates; start with number 0
// use jinja2 python lib to replace var tags with actual values
vertices
(
    (-1.51225 -1.45000 0.00000)	// v0
    (-0.31225 -1.45000 0.00000)	// v1
    (0.00000 -1.45000 0.00000)	// v2
    (0.31225 -1.45000 0.00000)	// v3
    (4.31225 -1.45000 0.00000)	// v4
    (-1.51225 -0.25000 0.00000)	// v5
    (-0.31225 -0.25000 0.00000)	// v6
    (0.00000 -0.40000 0.00000)	// v7
    (0.31225 -0.25000 0.00000)	// v8
    (4.31225 -0.25000 0.00000)	// v9
    (-1.51225 0.00000 0.00000)	// v10
    (-0.40000 0.00000 0.00000)	// v11
    (-0.10000 0.00000 0.00000)	// v12
    (-0.07071 -0.07071 0.00000)	// v13
    (0.00000 -0.10000 0.00000)	// v14
    (0.07071 -0.07071 0.00000)	// v15
    (0.10000 0.00000 0.00000)	// v16
    (0.07071 0.07071 0.00000)	// v17
    (0.00000 0.10000 0.00000)	// v18
    (-0.07071 0.07071 0.00000)	// v19
    (0.40000 0.00000 0.00000)	// v20
    (4.31225 0.00000 0.00000)	// v21
    (-1.51225 0.25000 0.00000)	// v22
    (-0.31225 0.25000 0.00000)	// v23
    (0.00000 0.40000 0.00000)	// v24
    (0.31225 0.25000 0.00000)	// v25
    (4.31225 0.25000 0.00000)	// v26
    (-1.51225 1.45000 0.00000)	// v27
    (-0.31225 1.45000 0.00000)	// v28
    (0.00000 1.45000 0.00000)	// v29
    (0.31225 1.45000 0.00000)	// v30
    (4.31225 1.45000 0.00000)	// v31
    (-1.51225 -1.45000 0.04000)	// v32
    (-0.31225 -1.45000 0.04000)	// v33
    (0.00000 -1.45000 0.04000)	// v34
    (0.31225 -1.45000 0.04000)	// v35
    (4.31225 -1.45000 0.04000)	// v36
    (-1.51225 -0.25000 0.04000)	// v37
    (-0.31225 -0.25000 0.04000)	// v38
    (0.00000 -0.40000 0.04000)	// v39
    (0.31225 -0.25000 0.04000)	// v40
    (4.31225 -0.25000 0.04000)	// v41
    (-1.51225 0.00000 0.04000)	// v42
    (-0.40000 0.00000 0.04000)	// v43
    (-0.10000 0.00000 0.04000)	// v44
    (-0.07071 -0.07071 0.04000)	// v45
    (0.00000 -0.10000 0.04000)	// v46
    (0.07071 -0.07071 0.04000)	// v47
    (0.10000 0.00000 0.04000)	// v48
    (0.07071 0.07071 0.04000)	// v49
    (0.00000 0.10000 0.04000)	// v50
    (-0.07071 0.07071 0.04000)	// v51
    (0.40000 0.00000 0.04000)	// v52
    (4.31225 0.00000 0.04000)	// v53
    (-1.51225 0.25000 0.04000)	// v54
    (-0.31225 0.25000 0.04000)	// v55
    (0.00000 0.40000 0.04000)	// v56
    (0.31225 0.25000 0.04000)	// v57
    (4.31225 0.25000 0.04000)	// v58
    (-1.51225 1.45000 0.04000)	// v59
    (-0.31225 1.45000 0.04000)	// v60
    (0.00000 1.45000 0.04000)	// v61
    (0.31225 1.45000 0.04000)	// v62
    (4.31225 1.45000 0.04000)	// v63
);

// Edges of foil boundary only, replace with spline
//	spline A B
//      ( 
//        (x1 y1 z1) - interpolacijske točke
//        (x2 y2 z2)
//        ...
//        (xn yn zn)
//     )
edges
(
    // inner circle
    arc 12 13 45 (0 0 1) // 45 degrees, z-normal
    arc 13 14 45 (0 0 1) // 45 degrees, z-normal
    arc 14 15 45 (0 0 1) // 45 degrees, z-normal
    arc 15 16 45 (0 0 1) // 45 degrees, z-normal
    arc 16 17 45 (0 0 1) // 45 degrees, z-normal
    arc 17 18 45 (0 0 1) // 45 degrees, z-normal
    arc 18 19 45 (0 0 1) // 45 degrees, z-normal
    arc 19 12 45 (0 0 1) // 45 degrees, z-normal
    arc 44 45 45 (0 0 1) // 45 degrees, z-normal
    arc 45 46 45 (0 0 1) // 45 degrees, z-normal
    arc 46 47 45 (0 0 1) // 45 degrees, z-normal
    arc 47 48 45 (0 0 1) // 45 degrees, z-normal
    arc 48 49 45 (0 0 1) // 45 degrees, z-normal
    arc 49 50 45 (0 0 1) // 45 degrees, z-normal
    arc 50 51 45 (0 0 1) // 45 degrees, z-normal
    arc 51 44 45 (0 0 1) // 45 degrees, z-normal

    // outer circle
    arc 11  6 45 (0 0 1) // 45 degrees, z-normal
    arc  6  7 45 (0 0 1) // 45 degrees, z-normal
    arc  7  8 45 (0 0 1) // 45 degrees, z-normal
    arc  8 20 45 (0 0 1) // 45 degrees, z-normal
    arc 20 25 45 (0 0 1) // 45 degrees, z-normal
    arc 25 24 45 (0 0 1) // 45 degrees, z-normal
    arc 24 23 45 (0 0 1) // 45 degrees, z-normal
    arc 23 11 45 (0 0 1) // 45 degrees, z-normal
    arc 43 38 45 (0 0 1) // 45 degrees, z-normal
    arc 38 39 45 (0 0 1) // 45 degrees, z-normal
    arc 39 40 45 (0 0 1) // 45 degrees, z-normal
    arc 40 52 45 (0 0 1) // 45 degrees, z-normal
    arc 52 57 45 (0 0 1) // 45 degrees, z-normal
    arc 57 56 45 (0 0 1) // 45 degrees, z-normal
    arc 56 55 45 (0 0 1) // 45 degrees, z-normal
    arc 55 43 45 (0 0 1) // 45 degrees, z-normal
);

// define mesh blocks
blocks
(
    hex ( 6  5  0  1 38 37 32 33) (20 20 1)    // cell #  0
    simpleGrading (2.00 4.00 1)
    hex (39 34 33 38  7  2  1  6) (20 10 1)     // cell #  1
    simpleGrading (4.00 1.00 1)
    hex ( 7  2  3  8 39 34 35 40) (20 10 1)     // cell #  2
    simpleGrading (4.00 1.00 1)
    hex (40 41 36 35  8  9  4  3) (40 20 1)    // cell #  3 - flip z
    simpleGrading (5.00 4.00 1)
    hex (11 10  5  6 43 42 37 38) (20 10 1) // cell #  4
    simpleGrading (2.00 1.00 1)

    // inner lower
    hex (12 11  6 13 44 43 38 45) (20 10 1)   // cell #  5i
    simpleGrading ( ((3.000 10 5.160) (97.000 10 16.774)) 1.00 1)
    hex (46 39 38 45 14  7  6 13) (20 10 1)   // cell #  6i
    simpleGrading ( ((3.000 10 5.160) (97.000 10 16.774)) 1.00 1)
    hex (14  7  8 15 46 39 40 47) (20 10 1)   // cell #  7i
    simpleGrading ( ((3.000 10 5.160) (97.000 10 16.774)) 1.00 1)
    hex (48 52 40 47 16 20  8 15) (20 10 1)  // cell #  8i - flip z
    simpleGrading ( ((3.000 10 5.160) (97.000 10 16.774)) 1.00 1)

    hex (52 53 41 40 20 21  9  8) (40 10 1)  // cell # 9 - flip z
    simpleGrading (5.00 1.00 1)
    hex (43 42 54 55 11 10 22 23) (20 10 1) // cell # 10  - flip z
    simpleGrading (2.00 1.00 1)

    //inner upper
    hex (44 43 55 51 12 11 23 19) (20 10 1)  // cell # 11i - flip z
    simpleGrading ( ((3.000 10 5.160) (97.000 10 16.774)) 1.00 1)
    hex (18 24 23 19 50 56 55 51) (20 10 1)  // cell # 12i
    simpleGrading ( ((3.000 10 5.160) (97.000 10 16.774)) 1.00 1)
    hex (50 56 57 49 18 24 25 17) (20 10 1)  // cell # 13i
    simpleGrading ( ((3.000 10 5.160) (97.000 10 16.774)) 1.00 1)
    hex (16 20 25 17 48 52 57 49) (20 10 1) // cell # 14i
    simpleGrading ( ((3.000 10 5.160) (97.000 10 16.774)) 1.00 1)

    hex (20 21 26 25 52 53 58 57) (40 10 1)  // cell # 15
    simpleGrading (5.00 1.00 1)
    hex (55 54 59 60 23 22 27 28) (20 20 1)   // cell # 16 - flip z
    simpleGrading (2.00 4.00 1)
    hex (24 29 28 23 56 61 60 55) (20 10 1)     // cell # 17
    simpleGrading (4.00 1.00 1)
    hex (56 61 62 57 24 29 30 25) (20 10 1)     // cell # 18
    simpleGrading (4.00 1.00 1)
    hex (25 26 31 30 57 58 63 62) (40 20 1)    // cell # 19 - flip z
    simpleGrading (5.00 4.00 1)
);

defaultPatch
{
    name front_back;
    type empty;
}

boundary
(
    inlet
    {
        type patch;
        faces
        (
            ( 5  0 32 37)
            (10  5 37 42)
            (22 10 42 54)
            (27 22 54 59)
        );
    }

    outlet
    {
        type patch;
        faces
        (
            ( 4  9 41 36)
            ( 9 21 53 41)
            (21 26 58 53)
            (26 31 63 58)
        );
    }

    top
    {
        type symmetry;
        faces
        (
            (28 27 59 60)
            (29 28 60 61)
            (30 29 61 62)
            (31 30 62 63)
        );
    }

    bottom
    {
        type symmetry;
        faces
        (
            (0 1 33 32)
            (1 2 34 33)
            (2 3 35 34)
            (3 4 36 35)
        );
    }

    cylinder
    {
        type wall;
        faces
        (
            (12 19 51 44)
            (19 18 50 51)
            (18 17 49 50)
            (17 16 48 49)
            (13 12 44 45)
            (14 13 45 46)
            (15 14 46 47)
            (16 15 47 48)
        );
    }
);