/*--------------------------------*- C++ -*----------------------------------*\
| =========                 |                                                 |
| \\      /  F ield         | OpenFOAM: The Open Source CFD Toolbox           |
|  \\    /   O peration     | Version:  5                                     |
|   \\  /    A nd           | Web:      www.OpenFOAM.org                      |
|    \\/     M anipulation  |                                                 |
\*---------------------------------------------------------------------------*/
FoamFile
{
    version     2.0;
    format      ascii;
    class       volVectorField;
    object      U;
}
// * * * * * * * * * * * * * * * * * * * * * * * * * * * * * * * * * * * * * //

dimensions      [0 1 -1 0 0 0 0];

vStart \VAR{v_start};

internalField   uniform $vStart;

boundaryField
{
    inlet
    {
        type            freestreamVelocity;
        freestreamValue uniform $vStart;
    }

    outlet
    {
        type            freestreamVelocity;
        freestreamValue uniform $vStart;
    }

    cylinder
    {
        type            noSlip;
    }

    top
    {
        type            symmetry;
    }

    bottom
    {
        type            symmetry;
    }

    frontAndBack
    {
        type            empty;
    }
}

// ************************************************************************* //
