/*--------------------------------*- C++ -*----------------------------------*\
  =========                 |
  \\      /  F ield         | OpenFOAM: The Open Source CFD Toolbox
   \\    /   O peration     | Website:  https://openfoam.org
    \\  /    A nd           | Version:  9
     \\/     M anipulation  |
\*---------------------------------------------------------------------------*/
FoamFile
{
    format      ascii;
    class       volScalarField;
    object      k;
}
// * * * * * * * * * * * * * * * * * * * * * * * * * * * * * * * * * * * * * //

dimensions      [0 2 -2 0 0 0 0];

internalField   uniform 1;

boundaryField
{
    inlet
	{
		type            freestream;
        freestreamValue $internalField;
	}
	
	outlet
	{
		type            freestream;
        freestreamValue $internalField;
	}
	
	walls
	{
        type            kqRWallFunction;
        value           $internalField;
	}

	frontAndBack
	{
		type            empty;
	}
}


// ************************************************************************* //
