/*--------------------------------*- C++ -*----------------------------------*\
  =========                 |
  \\      /  F ield         | OpenFOAM: The Open Source CFD Toolbox
   \\    /   O peration     | Website:  https://openfoam.org
    \\  /    A nd           | Version:  dev
     \\/     M anipulation  |
\*---------------------------------------------------------------------------*/
FoamFile
{
    format      ascii;
    class       volVectorField;
    object      U;
}
// * * * * * * * * * * * * * * * * * * * * * * * * * * * * * * * * * * * * * //

dimensions      [0 1 -1 0 0 0 0];

// *** Velocity magnitude is 60 m/s ***

internalField   uniform (57.95555 15.52914 0);

boundaryField
{
	inlet
	{
		type            freestreamVelocity;
        freestreamValue $internalField;
	}
	
	outlet
	{
		type            freestreamVelocity;
        freestreamValue $internalField;
	}

	walls
	{
		type            noSlip;
	}

	frontAndBack
	{
		type            empty;
	}
}

// ************************************************************************* //
