/*--------------------------------*- C++ -*----------------------------------*\
  =========                 |
  \\      /  F ield         | OpenFOAM: The Open Source CFD Toolbox
   \\    /   O peration     | Website:  https://openfoam.org
    \\  /    A nd           | Version:  9
     \\/     M anipulation  |
\*---------------------------------------------------------------------------*/
FoamFile
{
    format      ascii;
    class       dictionary;
    object      blockMeshDict;
}
// * * * * * * * * * * * * * * * * * * * * * * * * * * * * * * * * * * * * * //

convertToMeters 0.1;

vertices
(
    (0 0 0)
    (1 0 0)
    (1 1 0)
    (0 1 0)
    (0 0 0.01)
    (1 0 0.01)
    (1 1 0.01)
    (0 1 0.01)
);

/*    *** Mesh grading in OF ***
 *
 * Mesh grade is defined as the ration
 *
 *     g = (first cell size)/(last cell size)
 *
 * In this way grading is more stable.
*/


blocks
(
//    Simple block    
    hex (0 1 2 3 4 5 6 7) (20 20 1) simpleGrading (1 1 1)
    
//    Refined block in x and y direction
//    hex (0 1 2 3 4 5 6 7) (100 100 1) simpleGrading (1 1 1)

//    Refined block with fwd grading
//    hex (0 1 2 3 4 5 6 7) (100 100 1) simpleGrading (3 3 1)

//    Refined block with fwd + bck grading
//    hex (0 1 2 3 4 5 6 7) (100 100 1) simpleGrading (3 0.33 1)
    
);

edges
(
);

boundary
(
    movingWall
    {
        type wall;
        faces
        (
            (3 7 6 2)
        );
    }
    fixedWalls
    {
        type wall;
        faces
        (
            (0 4 7 3)
            (2 6 5 1)
            (1 5 4 0)
        );
    }
    frontAndBack
    {
        type empty;
        faces
        (
            (0 3 2 1)
            (4 5 6 7)
        );
    }
);

mergePatchPairs
(
);

// ************************************************************************* //
